/*--------------------------------*- C++ -*----------------------------------*\
  =========                 |
  \\      /  F ield         | OpenFOAM: The Open Source CFD Toolbox
   \\    /   O peration     | Website:  https://openfoam.org
    \\  /    A nd           | Version:  13
     \\/     M anipulation  |
\*---------------------------------------------------------------------------*/
FoamFile
{
    version     2.0;
    format      ascii;
    class       dictionary;
    object      controlDict;
}
// * * * * * * * * * * * * * * * * * * * * * * * * * * * * * * * * * * * * * //

application     qualitativeModelFoam;

startFrom       latestTime;

startTime       0;

stopAt          endTime;

endTime         50;//1500;

deltaT          timeStepSubs;//0.25;

writeControl    runTime;

writeInterval   10;

purgeWrite      0;

writeFormat     ascii; //binary ascii

writePrecision  16;

timeFormat      general;

timePrecision   8;

runTimeModifiable true;


// ************************************************************************* //
