/*--------------------------------*- C++ -*----------------------------------*\
  =========                 |
  \\      /  F ield         | OpenFOAM: The Open Source CFD Toolbox
   \\    /   O peration     | Website:  https://openfoam.org
    \\  /    A nd           | Version:  13
     \\/     M anipulation  |
\*---------------------------------------------------------------------------*/
FoamFile
{
    version     2.0;
    format      ascii;
    class       volScalarField;
    object      U;
}
// * * * * * * * * * * * * * * * * * * * * * * * * * * * * * * * * * * * * * //

dimensions      [0 0 0 0 0 0 0];

// internalField   uniform 0;

internalField #codeStream
{
    code
    #{        
        const IOdictionary& d       = static_cast<const IOdictionary&>(dict);
        const fvMesh&       mesh    = refCast<const fvMesh>(d.db());
        
        Info<< "Reading initialFieldsDict\n" << endl;
        IOdictionary myCustomDict
        (
            IOobject
            (
                "initialFieldsDict",
                mesh.time().constant(), //"constant",
                mesh,
                IOobject::MUST_READ,
                IOobject::NO_WRITE
            )
        );
        const dictionary& dataDict = myCustomDict.subDict("Uinit");
        const word fileFormat = dataDict.lookup<word>("format");
        Info<< "Reading " << fileFormat << " file ...\n" << endl; 
        
        autoPtr<Function1<scalar>> InitCondition(Function1<scalar>::New("type", {unitAny, unitAny}, dataDict));

        scalarField fld(mesh.nCells(), 0);
        forAll(fld, i)
        {
            // const scalar y = mesh.C()[i][1];
            const scalar x = mesh.C()[i][0];
            fld[i] = InitCondition->value(x);
        }

        writeEntry(os, "", fld);
    #};

    codeInclude
    #{
        #include "volFields.H"
        #include "Function1.H"
    #};

    codeOptions
    #{
        -I$(LIB_SRC)/finiteVolume/lnInclude \
        -I$(LIB_SRC)/meshTools/lnInclude
    #};

    codeLibs
    #{
        -lmeshTools \
        -lfiniteVolume
    #};
};

boundaryField
{
    left
    {
        type            zeroGradient;

        // type            fixedValue;
        // // value           $internalField;
        // value           uniform 0;
    }

    right
    {
        type            zeroGradient;

        // type            fixedValue;
        // // value           $internalField;
        // value           uniform 0;
    }

    ".*"
    {
        type            empty;
    }
}


// ************************************************************************* //
