/*--------------------------------*- C++ -*----------------------------------*\
  =========                 |
  \\      /  F ield         | OpenFOAM: The Open Source CFD Toolbox
   \\    /   O peration     | Website:  https://openfoam.org
    \\  /    A nd           | Version:  13
     \\/     M anipulation  |
\*---------------------------------------------------------------------------*/
FoamFile
{
    version     2.0;
    format      ascii;
    class       volScalarField;
    object      Y;
}
// * * * * * * * * * * * * * * * * * * * * * * * * * * * * * * * * * * * * * //

dimensions      [0 0 0 0 0 0 0];

// internalField   uniform 0;

internalField   #codeStream
{

    codeInclude
    #{
        #include "volFields.H"
    #};

    codeOptions
    #{
        -I$(LIB_SRC)/finiteVolume/lnInclude \
        -I$(LIB_SRC)/meshTools/lnInclude
    #};

    codeLibs
    #{
        -lmeshTools \
        -lfiniteVolume
    #};

    code
    #{
        const IOdictionary  &d      = static_cast<const IOdictionary&>(dict);
        const fvMesh        &mesh   = refCast<const fvMesh>(d.db());

        scalarField Yfield(mesh.nCells(), 0.);

        forAll(Yfield, i)
        {
            const scalar x = mesh.C()[i][0];
            
            Yfield[i] = 0.5*(1 - tanh(5*(x-3.)));
        }
        writeEntry(os, "", Yfield);
    #};
};

boundaryField
{
    left
    {
        type            zeroGradient;

        // type            fixedValue;
        // value           uniform     1;
    }

    right
    {
        type            zeroGradient;

        // type            fixedValue;
        // value           uniform     0;  //$internalField;
    }

    ".*"
    {
        type            empty;
    }
}


// ************************************************************************* //
