/*--------------------------------*- C++ -*----------------------------------*\
  =========                 |
  \\      /  F ield         | OpenFOAM: The Open Source CFD Toolbox
   \\    /   O peration     | Website:  https://openfoam.org
    \\  /    A nd           | Version:  13
     \\/     M anipulation  |
\*---------------------------------------------------------------------------*/
FoamFile
{
    version     2.0;
    format      ascii;
    class       dictionary;
    object      fvSolution;
}
// * * * * * * * * * * * * * * * * * * * * * * * * * * * * * * * * * * * * * //

solvers
{
    U
    {
        // solver          smoothSolver;
        // smoother        symGaussSeidel;
        // tolerance       1e-05;
        // relTol          0.1;

        solver          PBiCGStab;
        preconditioner  DILU;
        // solver          PCG;
        // preconditioner  DIC;
        tolerance       1e-12;
        relTol          0.1;
        norm            default;
    }

    UFinal
    {
        $U;
        relTol          0;
    }
    
    T
    {
        // solver           GAMG;
        // smoother         DICGaussSeidel;
        // tolerance        1e-6;
        // relTol           0.01;

        solver          PCG;
        preconditioner  DIC;
        tolerance       1e-12;
        relTol          0;    
    }

    TFinal
    {
        $T;
        relTol          0;
    }

    Y
    {
        // solver           GAMG;
        // smoother         DICGaussSeidel;
        // tolerance        1e-6;
        // relTol           0.01;

        solver          PCG;
        preconditioner  DIC;
        tolerance       1e-12;
        relTol          0;
    }

    YFinal
    {
        $Y;
        relTol          0;
    }
}

PIMPLE
{
    nOuterCorrectors    3;
    nNonOrthogonalCorrectors 0;
    nCorrectors         0;
}


// ************************************************************************* //
